IEEETestCases/37Bus/ieee37_VLL_Node.Txt

LINE-LINE VOLTAGES BY BUS & NODE

Bus       Node    VLN (kV)   Angle      pu     Base kV 

SOURCEBUS 1-2        230 /_   30.0         1   230.000
   -      2-3        230 /_  -90.0         1   230.000
   -      3-1        230 /_  150.0         1   230.000
799 ..... 1-2        4.8 /_   30.0         1     4.800
   -      2-3        4.8 /_  -90.0         1     4.800
   -      3-1        4.8 /_  150.0         1     4.800
709 ..... 1-2        4.8 /_   30.0         1     4.800
   -      2-3        4.8 /_  -90.0         1     4.800
   -      3-1        4.8 /_  150.0         1     4.800
775 ..... 1-2       0.48 /_   30.0         1     0.480
   -      2-3       0.48 /_  -90.0         1     0.480
   -      3-1       0.48 /_  150.0         1     0.480
701 ..... 1-2        4.8 /_   30.0         1     4.800
   -      2-3        4.8 /_  -90.0         1     4.800
   -      3-1        4.8 /_  150.0         1     4.800
702 ..... 1-2        4.8 /_   30.0         1     4.800
   -      2-3        4.8 /_  -90.0         1     4.800
   -      3-1        4.8 /_  150.0         1     4.800
705 ..... 1-2        4.8 /_   30.0         1     4.800
   -      2-3        4.8 /_  -90.0         1     4.800
   -      3-1        4.8 /_  150.0         1     4.800
713 ..... 1-2        4.8 /_   30.0         1     4.800
   -      2-3        4.8 /_  -90.0         1     4.800
   -      3-1        4.8 /_  150.0         1     4.800
703 ..... 1-2        4.8 /_   30.0         1     4.800
   -      2-3        4.8 /_  -90.0         1     4.800
   -      3-1        4.8 /_  150.0         1     4.800
727 ..... 1-2        4.8 /_   30.0         1     4.800
   -      2-3        4.8 /_  -90.0         1     4.800
   -      3-1        4.8 /_  150.0         1     4.800
730 ..... 1-2        4.8 /_   30.0         1     4.800
   -      2-3        4.8 /_  -90.0         1     4.800
   -      3-1        4.8 /_  150.0         1     4.800
704 ..... 1-2        4.8 /_   30.0         1     4.800
   -      2-3        4.8 /_  -90.0         1     4.800
   -      3-1        4.8 /_  150.0         1     4.800
714 ..... 1-2        4.8 /_   30.0         1     4.800
   -      2-3        4.8 /_  -90.0         1     4.800
   -      3-1        4.8 /_  150.0         1     4.800
720 ..... 1-2        4.8 /_   30.0         1     4.800
   -      2-3        4.8 /_  -90.0         1     4.800
   -      3-1        4.8 /_  150.0         1     4.800
742 ..... 1-2        4.8 /_   30.0         1     4.800
   -      2-3        4.8 /_  -90.0         1     4.800
   -      3-1        4.8 /_  150.0         1     4.800
712 ..... 1-2        4.8 /_   30.0         1     4.800
   -      2-3        4.8 /_  -90.0         1     4.800
   -      3-1        4.8 /_  150.0         1     4.800
706 ..... 1-2        4.8 /_   30.0         1     4.800
   -      2-3        4.8 /_  -90.0         1     4.800
   -      3-1        4.8 /_  150.0         1     4.800
725 ..... 1-2        4.8 /_   30.0         1     4.800
   -      2-3        4.8 /_  -90.0         1     4.800
   -      3-1        4.8 /_  150.0         1     4.800
707 ..... 1-2        4.8 /_   30.0         1     4.800
   -      2-3        4.8 /_  -90.0         1     4.800
   -      3-1        4.8 /_  150.0         1     4.800
724 ..... 1-2        4.8 /_   30.0         1     4.800
   -      2-3        4.8 /_  -90.0         1     4.800
   -      3-1        4.8 /_  150.0         1     4.800
722 ..... 1-2        4.8 /_   30.0         1     4.800
   -      2-3        4.8 /_  -90.0         1     4.800
   -      3-1        4.8 /_  150.0         1     4.800
708 ..... 1-2        4.8 /_   30.0         1     4.800
   -      2-3        4.8 /_  -90.0         1     4.800
   -      3-1        4.8 /_  150.0         1     4.800
733 ..... 1-2        4.8 /_   30.0         1     4.800
   -      2-3        4.8 /_  -90.0         1     4.800
   -      3-1        4.8 /_  150.0         1     4.800
732 ..... 1-2        4.8 /_   30.0         1     4.800
   -      2-3        4.8 /_  -90.0         1     4.800
   -      3-1        4.8 /_  150.0         1     4.800
731 ..... 1-2        4.8 /_   30.0         1     4.800
   -      2-3        4.8 /_  -90.0         1     4.800
   -      3-1        4.8 /_  150.0         1     4.800
710 ..... 1-2        4.8 /_   30.0         1     4.800
   -      2-3        4.8 /_  -90.0         1     4.800
   -      3-1        4.8 /_  150.0         1     4.800
735 ..... 1-2        4.8 /_   30.0         1     4.800
   -      2-3        4.8 /_  -90.0         1     4.800
   -      3-1        4.8 /_  150.0         1     4.800
736 ..... 1-2        4.8 /_   30.0         1     4.800
   -      2-3        4.8 /_  -90.0         1     4.800
   -      3-1        4.8 /_  150.0         1     4.800
711 ..... 1-2        4.8 /_   30.0         1     4.800
   -      2-3        4.8 /_  -90.0         1     4.800
   -      3-1        4.8 /_  150.0         1     4.800
741 ..... 1-2        4.8 /_   30.0         1     4.800
   -      2-3        4.8 /_  -90.0         1     4.800
   -      3-1        4.8 /_  150.0         1     4.800
740 ..... 1-2        4.8 /_   30.0         1     4.800
   -      2-3        4.8 /_  -90.0         1     4.800
   -      3-1        4.8 /_  150.0         1     4.800
718 ..... 1-2        4.8 /_   30.0         1     4.800
   -      2-3        4.8 /_  -90.0         1     4.800
   -      3-1        4.8 /_  150.0         1     4.800
744 ..... 1-2        4.8 /_   30.0         1     4.800
   -      2-3        4.8 /_  -90.0         1     4.800
   -      3-1        4.8 /_  150.0         1     4.800
734 ..... 1-2        4.8 /_   30.0         1     4.800
   -      2-3        4.8 /_  -90.0         1     4.800
   -      3-1        4.8 /_  150.0         1     4.800
737 ..... 1-2        4.8 /_   30.0         1     4.800
   -      2-3        4.8 /_  -90.0         1     4.800
   -      3-1        4.8 /_  150.0         1     4.800
738 ..... 1-2        4.8 /_   30.0         1     4.800
   -      2-3        4.8 /_  -90.0         1     4.800
   -      3-1        4.8 /_  150.0         1     4.800
728 ..... 1-2        4.8 /_   30.0         1     4.800
   -      2-3        4.8 /_  -90.0         1     4.800
   -      3-1        4.8 /_  150.0         1     4.800
729 ..... 1-2        4.8 /_   30.0         1     4.800
   -      2-3        4.8 /_  -90.0         1     4.800
   -      3-1        4.8 /_  150.0         1     4.800
799R .... 1-2        4.8 /_   30.0         1     4.800
   -      2-3        4.8 /_  -90.0         1     4.800
   -      3-1        4.8 /_  150.0         1     4.800
